
Version,
  9.4;                                    !- Version Identifier

Timestep,
  6;                                      !- Number of Timesteps per Hour

LifeCycleCost:Parameters,
  Life Cycle Cost Parameters,             !- Name
  EndOfYear,                              !- Discounting Convention
  ConstantDollar,                         !- Inflation Approach
  0.03,                                   !- Real Discount Rate
  ,                                       !- Nominal Discount Rate
  ,                                       !- Inflation
  ,                                       !- Base Date Month
  2011,                                   !- Base Date Year
  ,                                       !- Service Date Month
  2011,                                   !- Service Date Year
  25,                                     !- Length of Study Period in Years
  ,                                       !- Tax rate
  None;                                   !- Depreciation Method

LifeCycleCost:UsePriceEscalation,
  U.S. Avg  Commercial-Electricity,       !- Name
  Electricity,                            !- Resource
  2011,                                   !- Escalation Start Year
  January,                                !- Escalation Start Month
  0.9838,                                 !- Year Escalation 1
  0.9730,                                 !- Year Escalation 2
  0.9632,                                 !- Year Escalation 3
  0.9611,                                 !- Year Escalation 4
  0.9571,                                 !- Year Escalation 5
  0.9553,                                 !- Year Escalation 6
  0.9539,                                 !- Year Escalation 7
  0.9521,                                 !- Year Escalation 8
  0.9546,                                 !- Year Escalation 9
  0.9550,                                 !- Year Escalation 10
  0.9553,                                 !- Year Escalation 11
  0.9564,                                 !- Year Escalation 12
  0.9575,                                 !- Year Escalation 13
  0.9596,                                 !- Year Escalation 14
  0.9618,                                 !- Year Escalation 15
  0.9614,                                 !- Year Escalation 16
  0.9618,                                 !- Year Escalation 17
  0.9618,                                 !- Year Escalation 18
  0.9593,                                 !- Year Escalation 19
  0.9589,                                 !- Year Escalation 20
  0.9607,                                 !- Year Escalation 21
  0.9625,                                 !- Year Escalation 22
  0.9650,                                 !- Year Escalation 23
  0.9708,                                 !- Year Escalation 24
  0.9751,                                 !- Year Escalation 25
  0.9762,                                 !- Year Escalation 26
  0.9766,                                 !- Year Escalation 27
  0.9766,                                 !- Year Escalation 28
  0.9769,                                 !- Year Escalation 29
  0.9773;                                 !- Year Escalation 30

LifeCycleCost:UsePriceEscalation,
  U.S. Avg  Commercial-Distillate Oil,    !- Name
  FuelOilNo1,                             !- Resource
  2011,                                   !- Escalation Start Year
  January,                                !- Escalation Start Month
  0.9714,                                 !- Year Escalation 1
  0.9730,                                 !- Year Escalation 2
  0.9942,                                 !- Year Escalation 3
  1.0164,                                 !- Year Escalation 4
  1.0541,                                 !- Year Escalation 5
  1.0928,                                 !- Year Escalation 6
  1.1267,                                 !- Year Escalation 7
  1.1580,                                 !- Year Escalation 8
  1.1792,                                 !- Year Escalation 9
  1.1967,                                 !- Year Escalation 10
  1.2200,                                 !- Year Escalation 11
  1.2333,                                 !- Year Escalation 12
  1.2566,                                 !- Year Escalation 13
  1.2709,                                 !- Year Escalation 14
  1.2826,                                 !- Year Escalation 15
  1.2985,                                 !- Year Escalation 16
  1.3102,                                 !- Year Escalation 17
  1.3250,                                 !- Year Escalation 18
  1.3261,                                 !- Year Escalation 19
  1.3282,                                 !- Year Escalation 20
  1.3324,                                 !- Year Escalation 21
  1.3356,                                 !- Year Escalation 22
  1.3431,                                 !- Year Escalation 23
  1.3510,                                 !- Year Escalation 24
  1.3568,                                 !- Year Escalation 25
  1.3606,                                 !- Year Escalation 26
  1.3637,                                 !- Year Escalation 27
  1.3674,                                 !- Year Escalation 28
  1.3706,                                 !- Year Escalation 29
  1.3743;                                 !- Year Escalation 30

LifeCycleCost:UsePriceEscalation,
  U.S. Avg  Commercial-Residual Oil,      !- Name
  FuelOilNo2,                             !- Resource
  2011,                                   !- Escalation Start Year
  January,                                !- Escalation Start Month
  0.8469,                                 !- Year Escalation 1
  0.8257,                                 !- Year Escalation 2
  0.8681,                                 !- Year Escalation 3
  0.8988,                                 !- Year Escalation 4
  0.9289,                                 !- Year Escalation 5
  0.9604,                                 !- Year Escalation 6
  0.9897,                                 !- Year Escalation 7
  1.0075,                                 !- Year Escalation 8
  1.0314,                                 !- Year Escalation 9
  1.0554,                                 !- Year Escalation 10
  1.0861,                                 !- Year Escalation 11
  1.1278,                                 !- Year Escalation 12
  1.1497,                                 !- Year Escalation 13
  1.1620,                                 !- Year Escalation 14
  1.1743,                                 !- Year Escalation 15
  1.1852,                                 !- Year Escalation 16
  1.1948,                                 !- Year Escalation 17
  1.2037,                                 !- Year Escalation 18
  1.2071,                                 !- Year Escalation 19
  1.2119,                                 !- Year Escalation 20
  1.2139,                                 !- Year Escalation 21
  1.2194,                                 !- Year Escalation 22
  1.2276,                                 !- Year Escalation 23
  1.2365,                                 !- Year Escalation 24
  1.2420,                                 !- Year Escalation 25
  1.2461,                                 !- Year Escalation 26
  1.2509,                                 !- Year Escalation 27
  1.2550,                                 !- Year Escalation 28
  1.2591,                                 !- Year Escalation 29
  1.2638;                                 !- Year Escalation 30

LifeCycleCost:UsePriceEscalation,
  U.S. Avg  Commercial-Natural gas,       !- Name
  NaturalGas,                             !- Resource
  2011,                                   !- Escalation Start Year
  January,                                !- Escalation Start Month
  0.9823,                                 !- Year Escalation 1
  0.9557,                                 !- Year Escalation 2
  0.9279,                                 !- Year Escalation 3
  0.9257,                                 !- Year Escalation 4
  0.9346,                                 !- Year Escalation 5
  0.9412,                                 !- Year Escalation 6
  0.9512,                                 !- Year Escalation 7
  0.9645,                                 !- Year Escalation 8
  0.9856,                                 !- Year Escalation 9
  1.0067,                                 !- Year Escalation 10
  1.0222,                                 !- Year Escalation 11
  1.0410,                                 !- Year Escalation 12
  1.0610,                                 !- Year Escalation 13
  1.0787,                                 !- Year Escalation 14
  1.0942,                                 !- Year Escalation 15
  1.1098,                                 !- Year Escalation 16
  1.1220,                                 !- Year Escalation 17
  1.1308,                                 !- Year Escalation 18
  1.1386,                                 !- Year Escalation 19
  1.1486,                                 !- Year Escalation 20
  1.1619,                                 !- Year Escalation 21
  1.1763,                                 !- Year Escalation 22
  1.1918,                                 !- Year Escalation 23
  1.2118,                                 !- Year Escalation 24
  1.2284,                                 !- Year Escalation 25
  1.2439,                                 !- Year Escalation 26
  1.2605,                                 !- Year Escalation 27
  1.2772,                                 !- Year Escalation 28
  1.2938,                                 !- Year Escalation 29
  1.3115;                                 !- Year Escalation 30

LifeCycleCost:UsePriceEscalation,
  U.S. Avg  Commercial-Coal,              !- Name
  Coal,                                   !- Resource
  2011,                                   !- Escalation Start Year
  January,                                !- Escalation Start Month
  0.9970,                                 !- Year Escalation 1
  1.0089,                                 !- Year Escalation 2
  1.0089,                                 !- Year Escalation 3
  0.9941,                                 !- Year Escalation 4
  0.9941,                                 !- Year Escalation 5
  1.0000,                                 !- Year Escalation 6
  1.0030,                                 !- Year Escalation 7
  1.0059,                                 !- Year Escalation 8
  1.0089,                                 !- Year Escalation 9
  1.0119,                                 !- Year Escalation 10
  1.0148,                                 !- Year Escalation 11
  1.0178,                                 !- Year Escalation 12
  1.0208,                                 !- Year Escalation 13
  1.0267,                                 !- Year Escalation 14
  1.0297,                                 !- Year Escalation 15
  1.0356,                                 !- Year Escalation 16
  1.0415,                                 !- Year Escalation 17
  1.0534,                                 !- Year Escalation 18
  1.0564,                                 !- Year Escalation 19
  1.0593,                                 !- Year Escalation 20
  1.0653,                                 !- Year Escalation 21
  1.0712,                                 !- Year Escalation 22
  1.0742,                                 !- Year Escalation 23
  1.0801,                                 !- Year Escalation 24
  1.0831,                                 !- Year Escalation 25
  1.0831,                                 !- Year Escalation 26
  1.0861,                                 !- Year Escalation 27
  1.0890,                                 !- Year Escalation 28
  1.0920,                                 !- Year Escalation 29
  1.0950;                                 !- Year Escalation 30

Building,
  Building 1,                             !- Name
  0,                                      !- North Axis {deg}
  City,                                   !- Terrain
  ,                                       !- Loads Convergence Tolerance Value {W}
  ,                                       !- Temperature Convergence Tolerance Value {deltaC}
  FullExteriorWithReflections,            !- Solar Distribution
  ,                                       !- Maximum Number of Warmup Days
  ;                                       !- Minimum Number of Warmup Days

Shading:Building:Detailed,
  Shade_dace0e28,                         !- Name
  ,                                       !- Transmittance Schedule Name
  ,                                       !- Number of Vertices
  30, -30, 0,                             !- X,Y,Z Vertex 1 {m}
  30, 30, 0,                              !- X,Y,Z Vertex 2 {m}
  -30, 30, 0,                             !- X,Y,Z Vertex 3 {m}
  -30, -30, 0;                            !- X,Y,Z Vertex 4 {m}

Shading:Building:Detailed,
  Shade_f7e3a181_0,                       !- Name
  ,                                       !- Transmittance Schedule Name
  ,                                       !- Number of Vertices
  -2, -9, 8,                              !- X,Y,Z Vertex 1 {m}
  -2, -9, 0,                              !- X,Y,Z Vertex 2 {m}
  2, -9, 0,                               !- X,Y,Z Vertex 3 {m}
  2, -9, 8;                               !- X,Y,Z Vertex 4 {m}

Shading:Building:Detailed,
  Shade_f7e3a181_1,                       !- Name
  ,                                       !- Transmittance Schedule Name
  ,                                       !- Number of Vertices
  2, -9, 8,                               !- X,Y,Z Vertex 1 {m}
  2, -9, 0,                               !- X,Y,Z Vertex 2 {m}
  2, -5, 0,                               !- X,Y,Z Vertex 3 {m}
  2, -5, 8;                               !- X,Y,Z Vertex 4 {m}

Shading:Building:Detailed,
  Shade_f7e3a181_2,                       !- Name
  ,                                       !- Transmittance Schedule Name
  ,                                       !- Number of Vertices
  2, -5, 8,                               !- X,Y,Z Vertex 1 {m}
  2, -5, 0,                               !- X,Y,Z Vertex 2 {m}
  -2, -5, 0,                              !- X,Y,Z Vertex 3 {m}
  -2, -5, 8;                              !- X,Y,Z Vertex 4 {m}

Shading:Building:Detailed,
  Shade_f7e3a181_3,                       !- Name
  ,                                       !- Transmittance Schedule Name
  ,                                       !- Number of Vertices
  -2, -5, 8,                              !- X,Y,Z Vertex 1 {m}
  -2, -5, 0,                              !- X,Y,Z Vertex 2 {m}
  -2, -9, 0,                              !- X,Y,Z Vertex 3 {m}
  -2, -9, 8;                              !- X,Y,Z Vertex 4 {m}

Shading:Building:Detailed,
  Shade_f7e3a181_4,                       !- Name
  ,                                       !- Transmittance Schedule Name
  ,                                       !- Number of Vertices
  2, -5, 0,                               !- X,Y,Z Vertex 1 {m}
  2, -9, 0,                               !- X,Y,Z Vertex 2 {m}
  -2, -9, 0,                              !- X,Y,Z Vertex 3 {m}
  -2, -5, 0;                              !- X,Y,Z Vertex 4 {m}

Shading:Building:Detailed,
  Shade_f7e3a181_5,                       !- Name
  ,                                       !- Transmittance Schedule Name
  ,                                       !- Number of Vertices
  2, -9, 8,                               !- X,Y,Z Vertex 1 {m}
  2, -5, 8,                               !- X,Y,Z Vertex 2 {m}
  -2, -5, 8,                              !- X,Y,Z Vertex 3 {m}
  -2, -9, 8;                              !- X,Y,Z Vertex 4 {m}

Zone,
  Room_1_e56f2daa,                        !- Name
  0,                                      !- Direction of Relative North {deg}
  0,                                      !- X Origin {m}
  0,                                      !- Y Origin {m}
  0,                                      !- Z Origin {m}
  ,                                       !- Type
  1,                                      !- Multiplier
  ,                                       !- Ceiling Height {m}
  ,                                       !- Volume {m3}
  ,                                       !- Floor Area {m2}
  ,                                       !- Zone Inside Convection Algorithm
  ,                                       !- Zone Outside Convection Algorithm
  Yes;                                    !- Part of Total Floor Area

BuildingSurface:Detailed,
  Room_1_e56f2daa..Face0,                 !- Name
  Wall,                                   !- Surface Type
  Typical Insulated Exterior Mass Wall-R22, !- Construction Name
  Room_1_e56f2daa,                        !- Zone Name
  Outdoors,                               !- Outside Boundary Condition
  ,                                       !- Outside Boundary Condition Object
  SunExposed,                             !- Sun Exposure
  WindExposed,                            !- Wind Exposure
  ,                                       !- View Factor to Ground
  ,                                       !- Number of Vertices
  -4, -4, 4.1,                            !- X,Y,Z Vertex 1 {m}
  -4, -4, 0.1,                            !- X,Y,Z Vertex 2 {m}
  4, -4, 0.1,                             !- X,Y,Z Vertex 3 {m}
  4, -4, 4.1;                             !- X,Y,Z Vertex 4 {m}

FenestrationSurface:Detailed,
  Room_1_e56f2daa..Face0_Glz0,            !- Name
  Window,                                 !- Surface Type
  WindowConstruction_10a40bf3,            !- Construction Name
  Room_1_e56f2daa..Face0,                 !- Building Surface Name
  ,                                       !- Outside Boundary Condition Object
  ,                                       !- View Factor to Ground
  ,                                       !- Frame and Divider Name
  ,                                       !- Multiplier
  ,                                       !- Number of Vertices
  -3.92, -4, 3.54897959183673,            !- X,Y,Z Vertex 1 {m}
  -3.92, -4, 1.1,                         !- X,Y,Z Vertex 2 {m}
  3.92, -4, 1.1,                          !- X,Y,Z Vertex 3 {m}
  3.92, -4, 3.54897959183673;             !- X,Y,Z Vertex 4 {m}

BuildingSurface:Detailed,
  Room_1_e56f2daa..Face1,                 !- Name
  Wall,                                   !- Surface Type
  Typical Insulated Exterior Mass Wall-R22, !- Construction Name
  Room_1_e56f2daa,                        !- Zone Name
  Outdoors,                               !- Outside Boundary Condition
  ,                                       !- Outside Boundary Condition Object
  SunExposed,                             !- Sun Exposure
  WindExposed,                            !- Wind Exposure
  ,                                       !- View Factor to Ground
  ,                                       !- Number of Vertices
  4, -4, 4.1,                             !- X,Y,Z Vertex 1 {m}
  4, -4, 0.1,                             !- X,Y,Z Vertex 2 {m}
  4, 4, 0.1,                              !- X,Y,Z Vertex 3 {m}
  4, 4, 4.1;                              !- X,Y,Z Vertex 4 {m}

FenestrationSurface:Detailed,
  Room_1_e56f2daa..Face1_Glz0,            !- Name
  Window,                                 !- Surface Type
  WindowConstruction_10a40bf3,            !- Construction Name
  Room_1_e56f2daa..Face1,                 !- Building Surface Name
  ,                                       !- Outside Boundary Condition Object
  ,                                       !- View Factor to Ground
  ,                                       !- Frame and Divider Name
  ,                                       !- Multiplier
  ,                                       !- Number of Vertices
  4, -3.92, 3.54897959183673,             !- X,Y,Z Vertex 1 {m}
  4, -3.92, 1.1,                          !- X,Y,Z Vertex 2 {m}
  4, 3.92, 1.1,                           !- X,Y,Z Vertex 3 {m}
  4, 3.92, 3.54897959183673;              !- X,Y,Z Vertex 4 {m}

BuildingSurface:Detailed,
  Room_1_e56f2daa..Face2,                 !- Name
  Wall,                                   !- Surface Type
  Typical Insulated Exterior Mass Wall-R22, !- Construction Name
  Room_1_e56f2daa,                        !- Zone Name
  Outdoors,                               !- Outside Boundary Condition
  ,                                       !- Outside Boundary Condition Object
  SunExposed,                             !- Sun Exposure
  WindExposed,                            !- Wind Exposure
  ,                                       !- View Factor to Ground
  ,                                       !- Number of Vertices
  4, 4, 4.1,                              !- X,Y,Z Vertex 1 {m}
  4, 4, 0.1,                              !- X,Y,Z Vertex 2 {m}
  -4, 4, 0.1,                             !- X,Y,Z Vertex 3 {m}
  -4, 4, 4.1;                             !- X,Y,Z Vertex 4 {m}

FenestrationSurface:Detailed,
  Room_1_e56f2daa..Face2_Glz0,            !- Name
  Window,                                 !- Surface Type
  WindowConstruction_10a40bf3,            !- Construction Name
  Room_1_e56f2daa..Face2,                 !- Building Surface Name
  ,                                       !- Outside Boundary Condition Object
  ,                                       !- View Factor to Ground
  ,                                       !- Frame and Divider Name
  ,                                       !- Multiplier
  ,                                       !- Number of Vertices
  3.92, 4, 3.54897959183673,              !- X,Y,Z Vertex 1 {m}
  3.92, 4, 1.1,                           !- X,Y,Z Vertex 2 {m}
  -3.92, 4, 1.1,                          !- X,Y,Z Vertex 3 {m}
  -3.92, 4, 3.54897959183673;             !- X,Y,Z Vertex 4 {m}

BuildingSurface:Detailed,
  Room_1_e56f2daa..Face3,                 !- Name
  Wall,                                   !- Surface Type
  Typical Insulated Exterior Mass Wall-R22, !- Construction Name
  Room_1_e56f2daa,                        !- Zone Name
  Outdoors,                               !- Outside Boundary Condition
  ,                                       !- Outside Boundary Condition Object
  SunExposed,                             !- Sun Exposure
  WindExposed,                            !- Wind Exposure
  ,                                       !- View Factor to Ground
  ,                                       !- Number of Vertices
  -4, 4, 4.1,                             !- X,Y,Z Vertex 1 {m}
  -4, 4, 0.1,                             !- X,Y,Z Vertex 2 {m}
  -4, -4, 0.1,                            !- X,Y,Z Vertex 3 {m}
  -4, -4, 4.1;                            !- X,Y,Z Vertex 4 {m}

FenestrationSurface:Detailed,
  Room_1_e56f2daa..Face3_Glz0,            !- Name
  Window,                                 !- Surface Type
  WindowConstruction_10a40bf3,            !- Construction Name
  Room_1_e56f2daa..Face3,                 !- Building Surface Name
  ,                                       !- Outside Boundary Condition Object
  ,                                       !- View Factor to Ground
  ,                                       !- Frame and Divider Name
  ,                                       !- Multiplier
  ,                                       !- Number of Vertices
  -4, 3.92, 3.54897959183673,             !- X,Y,Z Vertex 1 {m}
  -4, 3.92, 1.1,                          !- X,Y,Z Vertex 2 {m}
  -4, -3.92, 1.1,                         !- X,Y,Z Vertex 3 {m}
  -4, -3.92, 3.54897959183673;            !- X,Y,Z Vertex 4 {m}

BuildingSurface:Detailed,
  Room_1_e56f2daa..Face4,                 !- Name
  Floor,                                  !- Surface Type
  Generic Interior Floor,                 !- Construction Name
  Room_1_e56f2daa,                        !- Zone Name
  Adiabatic,                              !- Outside Boundary Condition
  ,                                       !- Outside Boundary Condition Object
  NoSun,                                  !- Sun Exposure
  NoWind,                                 !- Wind Exposure
  ,                                       !- View Factor to Ground
  ,                                       !- Number of Vertices
  4, 4, 0.1,                              !- X,Y,Z Vertex 1 {m}
  4, -4, 0.1,                             !- X,Y,Z Vertex 2 {m}
  -4, -4, 0.1,                            !- X,Y,Z Vertex 3 {m}
  -4, 4, 0.1;                             !- X,Y,Z Vertex 4 {m}

BuildingSurface:Detailed,
  Room_1_e56f2daa..Face5,                 !- Name
  Ceiling,                                !- Surface Type
  Generic Interior Ceiling,               !- Construction Name
  Room_1_e56f2daa,                        !- Zone Name
  Adiabatic,                              !- Outside Boundary Condition
  ,                                       !- Outside Boundary Condition Object
  NoSun,                                  !- Sun Exposure
  NoWind,                                 !- Wind Exposure
  ,                                       !- View Factor to Ground
  ,                                       !- Number of Vertices
  4, -4, 4.1,                             !- X,Y,Z Vertex 1 {m}
  4, 4, 4.1,                              !- X,Y,Z Vertex 2 {m}
  -4, 4, 4.1,                             !- X,Y,Z Vertex 3 {m}
  -4, -4, 4.1;                            !- X,Y,Z Vertex 4 {m}

ZoneControl:Thermostat,
  Room_1_e56f2daa Thermostat,             !- Name
  Room_1_e56f2daa,                        !- Zone or ZoneList Name
  Room_1_e56f2daa Thermostat Schedule,    !- Control Type Schedule Name
  ThermostatSetpoint:DualSetpoint,        !- Control 1 Object Type
  Thermostat Setpoint Dual Setpoint 1,    !- Control 1 Name
  ,                                       !- Control 2 Object Type
  ,                                       !- Control 2 Name
  ,                                       !- Control 3 Object Type
  ,                                       !- Control 3 Name
  ,                                       !- Control 4 Object Type
  ,                                       !- Control 4 Name
  0;                                      !- Temperature Difference Between Cutout And Setpoint {deltaC}

Schedule:Compact,
  Room_1_e56f2daa Thermostat Schedule,    !- Name
  Room_1_e56f2daa Thermostat Schedule Type Limits, !- Schedule Type Limits Name
  Through: 12/31,                         !- Field 1
  For: AllDays,                           !- Field 2
  Until: 24:00,                           !- Field 3
  4;                                      !- Field 4

ScheduleTypeLimits,
  Room_1_e56f2daa Thermostat Schedule Type Limits, !- Name
  0,                                      !- Lower Limit Value {BasedOnField A3}
  4,                                      !- Upper Limit Value {BasedOnField A3}
  DISCRETE;                               !- Numeric Type

ThermostatSetpoint:DualSetpoint,
  Thermostat Setpoint Dual Setpoint 1,    !- Name
  ConstantSchedule_00da6eab,              !- Heating Setpoint Temperature Schedule Name
  ConstantSchedule_11893cf3;              !- Cooling Setpoint Temperature Schedule Name

ScheduleTypeLimits,
  Setpoints_TypeLimits,                   !- Name
  ,                                       !- Lower Limit Value {BasedOnField A3}
  ,                                       !- Upper Limit Value {BasedOnField A3}
  Continuous,                             !- Numeric Type
  temperature;                            !- Unit Type

Schedule:Day:Interval,
  ConstantSchedule_00da6eab_Day Schedule, !- Name
  Setpoints_TypeLimits,                   !- Schedule Type Limits Name
  No,                                     !- Interpolate to Timestep
  24:00,                                  !- Time 1 {hh:mm}
  20;                                     !- Value Until Time 1

Schedule:Week:Daily,
  ConstantSchedule_00da6eab Week Rule - Jan1-Dec31, !- Name
  ConstantSchedule_00da6eab_Day Schedule, !- Sunday Schedule:Day Name
  ConstantSchedule_00da6eab_Day Schedule, !- Monday Schedule:Day Name
  ConstantSchedule_00da6eab_Day Schedule, !- Tuesday Schedule:Day Name
  ConstantSchedule_00da6eab_Day Schedule, !- Wednesday Schedule:Day Name
  ConstantSchedule_00da6eab_Day Schedule, !- Thursday Schedule:Day Name
  ConstantSchedule_00da6eab_Day Schedule, !- Friday Schedule:Day Name
  ConstantSchedule_00da6eab_Day Schedule, !- Saturday Schedule:Day Name
  ConstantSchedule_00da6eab_Day Schedule, !- Holiday Schedule:Day Name
  ConstantSchedule_00da6eab_Day Schedule, !- SummerDesignDay Schedule:Day Name
  ConstantSchedule_00da6eab_Day Schedule, !- WinterDesignDay Schedule:Day Name
  ConstantSchedule_00da6eab_Day Schedule, !- CustomDay1 Schedule:Day Name
  ConstantSchedule_00da6eab_Day Schedule; !- CustomDay2 Schedule:Day Name

Schedule:Year,
  ConstantSchedule_00da6eab,              !- Name
  Setpoints_TypeLimits,                   !- Schedule Type Limits Name
  ConstantSchedule_00da6eab Week Rule - Jan1-Dec31, !- Schedule:Week Name 1
  1,                                      !- Start Month 1
  1,                                      !- Start Day 1
  12,                                     !- End Month 1
  31;                                     !- End Day 1

Schedule:Day:Interval,
  ConstantSchedule_11893cf3_Day Schedule, !- Name
  Setpoints_TypeLimits,                   !- Schedule Type Limits Name
  No,                                     !- Interpolate to Timestep
  24:00,                                  !- Time 1 {hh:mm}
  26;                                     !- Value Until Time 1

Schedule:Week:Daily,
  ConstantSchedule_11893cf3 Week Rule - Jan1-Dec31, !- Name
  ConstantSchedule_11893cf3_Day Schedule, !- Sunday Schedule:Day Name
  ConstantSchedule_11893cf3_Day Schedule, !- Monday Schedule:Day Name
  ConstantSchedule_11893cf3_Day Schedule, !- Tuesday Schedule:Day Name