
OS:Version,
  {da4a1b52-2de3-44a2-8af6-d57336720277}, !- Handle
  3.1.0;                                  !- Version Identifier

OS:Building,
  {6f633049-47e8-499d-90ec-b899daf7f69f}, !- Handle
  Building 1,                             !- Name
  ,                                       !- Building Sector Type
  0,                                      !- North Axis {deg}
  ,                                       !- Nominal Floor to Floor Height {m}
  ,                                       !- Space Type Name
  {d87ca920-7b0a-4574-a46f-583ebfab051e}, !- Default Construction Set Name
  ,                                       !- Default Schedule Set Name
  ,                                       !- Standards Number of Stories
  ,                                       !- Standards Number of Above Ground Stories
  ,                                       !- Standards Template
  MediumOffice;                           !- Standards Building Type

OS:Facility,
  {aa7bc1ee-83f8-48bf-8f18-7bf23b20727f}; !- Handle

OS:Site,
  {d9237da3-f009-4042-8890-a657bd10ff83}, !- Handle
  Site 1,                                 !- Name
  ,                                       !- Latitude {deg}
  ,                                       !- Longitude {deg}
  ,                                       !- Time Zone {hr}
  ,                                       !- Elevation {m}
  City;                                   !- Terrain

OS:SimulationControl,
  {7ab32c94-6787-4dd0-8767-e916d7114144}, !- Handle
  Yes,                                    !- Do Zone Sizing Calculation
  Yes,                                    !- Do System Sizing Calculation
  Yes,                                    !- Do Plant Sizing Calculation
  No,                                     !- Run Simulation for Sizing Periods
  Yes,                                    !- Run Simulation for Weather File Run Periods
  ,                                       !- Loads Convergence Tolerance Value {W}
  ,                                       !- Temperature Convergence Tolerance Value {deltaC}
  FullExteriorWithReflections;            !- Solar Distribution

OS:Sizing:Parameters,
  {69a0ec5d-71a4-4a4a-bf9b-c642fbf40252}, !- Handle
  1.25,                                   !- Heating Sizing Factor
  1.15;                                   !- Cooling Sizing Factor

OS:Timestep,
  {2315531e-077f-4450-8671-8c8362311e66}, !- Handle
  6;                                      !- Number of Timesteps per Hour

OS:ShadowCalculation,
  {a2604eea-942d-40a8-a578-675e3eeafe6a}, !- Handle
  PolygonClipping,                        !- Shading Calculation Method
  Timestep,                               !- Shading Calculation Update Frequency Method
  30,                                     !- Shading Calculation Update Frequency
  15000,                                  !- Maximum Figures in Shadow Overlap Calculations
  ,                                       !- Polygon Clipping Algorithm
  512,                                    !- Pixel Counting Resolution
  ,                                       !- Sky Diffuse Modeling Algorithm
  No,                                     !- Output External Shading Calculation Results
  No,                                     !- Disable Self-Shading Within Shading Zone Groups
  No;                                     !- Disable Self-Shading From Shading Zone Groups to Other Zones

OS:HeatBalanceAlgorithm,
  {491f7e82-9fb7-4cde-9038-9ff9ce41eb28}, !- Handle
  ConductionTransferFunction,             !- Algorithm
  200;                                    !- Surface Temperature Upper Limit {C}

OS:RunPeriod,
  {70d3ee2d-2cb8-4ada-97b0-bff4248b23ef}, !- Handle
  Run Period 1,                           !- Name
  1,                                      !- Begin Month
  1,                                      !- Begin Day of Month
  12,                                     !- End Month
  31,                                     !- End Day of Month
  ,                                       !- Use Weather File Holidays and Special Days
  ,                                       !- Use Weather File Daylight Saving Period
  ,                                       !- Apply Weekend Holiday Rule
  ,                                       !- Use Weather File Rain Indicators
  ,                                       !- Use Weather File Snow Indicators
  ;                                       !- Number of Times Runperiod to be Repeated

OS:LifeCycleCost:Parameters,
  {bceaeac8-a666-4c81-877b-f9d54770135a}, !- Handle
  ,                                       !- Analysis Type
  ,                                       !- Discounting Convention
  ,                                       !- Inflation Approach
  ,                                       !- Real Discount Rate
  ,                                       !- Nominal Discount Rate
  ,                                       !- Inflation
  ,                                       !- Base Date Month
  ,                                       !- Base Date Year
  ,                                       !- Service Date Month
  ,                                       !- Service Date Year
  ;                                       !- Length of Study Period in Years

OS:WeatherFile,
  {24733421-826a-45d9-bb51-be912a1fd447}, !- Handle
  COPENHAGEN,                             !- City
  -,                                      !- State Province Region
  DNK,                                    !- Country
  IWEC Data,                              !- Data Source
  061800,                                 !- WMO Number
  55.63,                                  !- Latitude {deg}
  12.67,                                  !- Longitude {deg}
  1,                                      !- Time Zone {hr}
  5,                                      !- Elevation {m}
  C:/Users/Pedersen_Admin/ladybug_tools/resources/weather/DNK_Copenhagen.061800_IWEC/DNK_Copenhagen.061800_IWEC.epw, !- Url
  684C3906;                               !- Checksum

OS:ScheduleTypeLimits,
  {d7dba926-1275-4f2f-957f-8c5d6466adb6}, !- Handle
  Setpoints_TypeLimits,                   !- Name
  ,                                       !- Lower Limit Value
  ,                                       !- Upper Limit Value
  Continuous,                             !- Numeric Type
  Temperature;                            !- Unit Type

OS:ScheduleTypeLimits,
  {51c64ba1-bfa8-400f-94f5-af09a7c8e101}, !- Handle
  Activity_TypeLimit,                     !- Name
  0,                                      !- Lower Limit Value
  ,                                       !- Upper Limit Value
  Discrete,                               !- Numeric Type
  ActivityLevel;                          !- Unit Type

OS:ScheduleTypeLimits,
  {69990b00-8f58-4eff-89f9-40dca9873f46}, !- Handle
  Fractional,                             !- Name
  0,                                      !- Lower Limit Value
  1,                                      !- Upper Limit Value
  Continuous,                             !- Numeric Type
  Dimensionless;                          !- Unit Type

OS:YearDescription,
  {b50a1d6b-b7b9-40e5-af54-1bf23f3bf639}, !- Handle
  ,                                       !- Calendar Year
  Sunday,                                 !- Day of Week for Start Day
  No;                                     !- Is Leap Year

OS:Schedule:Ruleset,
  {0ac3c93f-7ac2-4528-9185-ac544b182da6}, !- Handle
  ConstantSchedule_00da6eab,              !- Name
  {d7dba926-1275-4f2f-957f-8c5d6466adb6}, !- Schedule Type Limits Name
  {e05533f4-26a4-45d5-a3cb-ac795ad4224a}; !- Default Day Schedule Name

OS:Schedule:Day,
  {e05533f4-26a4-45d5-a3cb-ac795ad4224a}, !- Handle
  ConstantSchedule_00da6eab_Day Schedule, !- Name
  {d7dba926-1275-4f2f-957f-8c5d6466adb6}, !- Schedule Type Limits Name
  ,                                       !- Interpolate to Timestep
  24,                                     !- Hour 1
  0,                                      !- Minute 1
  20;                                     !- Value Until Time 1

OS:Schedule:Ruleset,
  {69ef0799-978b-4de6-9722-cb5c3e60cad9}, !- Handle
  ConstantSchedule_11893cf3,              !- Name
  {d7dba926-1275-4f2f-957f-8c5d6466adb6}, !- Schedule Type Limits Name
  {595818be-8d0c-41e4-b335-9c328e665e02}; !- Default Day Schedule Name

OS:Schedule:Day,
  {595818be-8d0c-41e4-b335-9c328e665e02}, !- Handle
  ConstantSchedule_11893cf3_Day Schedule, !- Name
  {d7dba926-1275-4f2f-957f-8c5d6466adb6}, !- Schedule Type Limits Name
  ,                                       !- Interpolate to Timestep
  24,                                     !- Hour 1
  0,                                      !- Minute 1
  26;                                     !- Value Until Time 1

OS:Schedule:FixedInterval,
  {6bdd4b99-9bc5-41e2-a72e-c26667105121}, !- Handle
  FixedIntervalSchedule_9a99df15,         !- Name
  {69990b00-8f58-4eff-89f9-40dca9873f46}, !- Schedule Type Limits Name
  ,                                       !- Translate to Schedule File
  No,                                     !- Interpolate to Timestep
  60,                                     !- Interval Length {minutes}
  ,                                       !- Out Of Range Value
  1,                                      !- Start Month
  1,                                      !- Start Day
  0,                                      !- Value 1
  0,                                      !- Value 2
  0,                                      !- Value 3
  0,                                      !- Value 4
  0,                                      !- Value 5
  0,                                      !- Value 6
  0,                                      !- Value 7
  0,                                      !- Value 8
  1,                                      !- Value 9
  1,                                      !- Value 10
  1,                                      !- Value 11
  1,                                      !- Value 12
  1,                                      !- Value 13
  1,                                      !- Value 14
  1,                                      !- Value 15
  1,                                      !- Value 16
  1,                                      !- Value 17
  0,                                      !- Value 18
  0,                                      !- Value 19
  0,                                      !- Value 20
  0,                                      !- Value 21
  0,                                      !- Value 22
  0,                                      !- Value 23
  0,                                      !- Value 24
  0,                                      !- Value 25
  0,                                      !- Value 26
  0,                                      !- Value 27
  0,                                      !- Value 28
  0,                                      !- Value 29
  0,                                      !- Value 30
  0,                                      !- Value 31
  0,                                      !- Value 32
  1,                                      !- Value 33
  1,                                      !- Value 34
  1,                                      !- Value 35
  1,                                      !- Value 36
  1,                                      !- Value 37
  1,                                      !- Value 38
  1,                                      !- Value 39
  1,                                      !- Value 40
  1,                                      !- Value 41
  0,                                      !- Value 42
  0,                                      !- Value 43
  0,                                      !- Value 44
  0,                                      !- Value 45
  0,                                      !- Value 46
  0,                                      !- Value 47
  0,                                      !- Value 48
  0,                                      !- Value 49
  0,                                      !- Value 50
  0,                                      !- Value 51
  0,                                      !- Value 52
  0,                                      !- Value 53
  0,                                      !- Value 54
  0,                                      !- Value 55
  0,                                      !- Value 56
  1,                                      !- Value 57
  1,                                      !- Value 58
  1,                                      !- Value 59
  1,                                      !- Value 60
  1,                                      !- Value 61
  1,                                      !- Value 62
  1,                                      !- Value 63
  1,                                      !- Value 64
  1,                                      !- Value 65
  0,                                      !- Value 66
  0,                                      !- Value 67
  0,                                      !- Value 68
  0,                                      !- Value 69
  0,                                      !- Value 70
  0,                                      !- Value 71
  0,                                      !- Value 72
  0,                                      !- Value 73
  0,                                      !- Value 74
  0,                                      !- Value 75
  0,                                      !- Value 76
  0,                                      !- Value 77
  0,                                      !- Value 78
  0,                                      !- Value 79
  0,                                      !- Value 80
  1,                                      !- Value 81
  1,                                      !- Value 82
  1,                                      !- Value 83
  1,                                      !- Value 84
  1,                                      !- Value 85
  1,                                      !- Value 86
  1,                                      !- Value 87
  1,                                      !- Value 88
  1,                                      !- Value 89
  0,                                      !- Value 90
  0,                                      !- Value 91
  0,                                      !- Value 92
  0,                                      !- Value 93
  0,                                      !- Value 94
  0,                                      !- Value 95
  0,                                      !- Value 96
  0,                                      !- Value 97
  0,                                      !- Value 98
  0,                                      !- Value 99
  0,                                      !- Value 100
  0,                                      !- Value 101
  0,                                      !- Value 102
  0,                                      !- Value 103
  0,                                      !- Value 104
  1,                                      !- Value 105
  1,                                      !- Value 106
  1,                                      !- Value 107
  1,                                      !- Value 108
  1,                                      !- Value 109
  1,                                      !- Value 110
  1,                                      !- Value 111
  1,                                      !- Value 112
  1,                                      !- Value 113
  0,                                      !- Value 114
  0,                                      !- Value 115
  0,                                      !- Value 116
  0,                                      !- Value 117
  0,                                      !- Value 118
  0,                                      !- Value 119
  0,                                      !- Value 120
  0,                                      !- Value 121
  0,                                      !- Value 122
  0,                                      !- Value 123
  0,                                      !- Value 124
  0,                                      !- Value 125
  0,                                      !- Value 126
  0,                                      !- Value 127
  0,                                      !- Value 128
  0,                                      !- Value 129
  0,                                      !- Value 130
  0,                                      !- Value 131
  0,                                      !- Value 132
  0,                                      !- Value 133
  0,                                      !- Value 134
  0,                                      !- Value 135
  0,                                      !- Value 136
  0,                                      !- Value 137
  0,                                      !- Value 138
  0,                                      !- Value 139
  0,                                      !- Value 140
  0,                                      !- Value 141
  0,                                      !- Value 142
  0,                                      !- Value 143
  0,                                      !- Value 144
  0,                                      !- Value 145
  0,                                      !- Value 146
  0,                                      !- Value 147
  0,                                      !- Value 148
  0,                                      !- Value 149
  0,                                      !- Value 150
  0,                                      !- Value 151
  0,                                      !- Value 152
  0,                                      !- Value 153
  0,                                      !- Value 154
  0,                                      !- Value 155
  0,                                      !- Value 156
  0,                                      !- Value 157
  0,                                      !- Value 158
  0,                                      !- Value 159
  0,                                      !- Value 160
  0,                                      !- Value 161
  0,                                      !- Value 162
  0,                                      !- Value 163
  0,                                      !- Value 164
  0,                                      !- Value 165
  0,                                      !- Value 166
  0,                                      !- Value 167
  0,                                      !- Value 168
  0,                                      !- Value 169
  0,                                      !- Value 170
  0,                                      !- Value 171
  0,                                      !- Value 172
  0,                                      !- Value 173
  0,                                      !- Value 174
  0,                                      !- Value 175
  0,                                      !- Value 176
  1,                                      !- Value 177
  1,                                      !- Value 178
  1,                                      !- Value 179
  1,                                      !- Value 180
  1,                                      !- Value 181
  1,                                      !- Value 182
  1,                                      !- Value 183
  1,                                      !- Value 184
  1,                                      !- Value 185
  0,                                      !- Value 186
  0,                                      !- Value 187
  0,                                      !- Value 188
  0,                                      !- Value 189
  0,                                      !- Value 190
  0,                                      !- Value 191
  0,                                      !- Value 192
  0,                                      !- Value 193
  0,                                      !- Value 194
  0,                                      !- Value 195
  0,                                      !- Value 196
  0,                                      !- Value 197
  0,                                      !- Value 198
  0,                                      !- Value 199
  0,                                      !- Value 200
  1,                                      !- Value 201
  1,                                      !- Value 202
  1,                                      !- Value 203
  1,                                      !- Value 204
  1,                                      !- Value 205
  1,                                      !- Value 206
  1,                                      !- Value 207
  1,                                      !- Value 208
  1,                                      !- Value 209
  0,                                      !- Value 210
  0,                                      !- Value 211
  0,                                      !- Value 212
  0,                                      !- Value 213
  0,                                      !- Value 214
  0,                                      !- Value 215
  0,                                      !- Value 216
  0,                                      !- Value 217
  0,                                      !- Value 218
  0,                                      !- Value 219
  0,                                      !- Value 220
  0,                                      !- Value 221
  0,                                      !- Value 222
  0,                                      !- Value 223
  0,                                      !- Value 224
  1,                                      !- Value 225
  1,                                      !- Value 226
  1,                                      !- Value 227
  1,                                      !- Value 228
  1,                                      !- Value 229
  1,                                      !- Value 230
  1,                                      !- Value 231
  1,                                      !- Value 232
  1,                                      !- Value 233
  0,                                      !- Value 234
  0,                                      !- Value 235
  0,                                      !- Value 236
  0,                                      !- Value 237
  0,                                      !- Value 238
  0,                                      !- Value 239
  0,                                      !- Value 240
  0,                                      !- Value 241
  0,                                      !- Value 242
  0,                                      !- Value 243
  0,                                      !- Value 244
  0,                                      !- Value 245
  0,                                      !- Value 246
  0,                                      !- Value 247
  0,                                      !- Value 248
  1,                                      !- Value 249
  1,                                      !- Value 250
  1,                                      !- Value 251
  1,                                      !- Value 252
  1,                                      !- Value 253
  1,                                      !- Value 254
  1,                                      !- Value 255
  1,                                      !- Value 256
  1,                                      !- Value 257
  0,                                      !- Value 258
  0,                                      !- Value 259
  0,                                      !- Value 260
  0,                                      !- Value 261
  0,                                      !- Value 262
  0,                                      !- Value 263
  0,                                      !- Value 264
  0,                                      !- Value 265
  0,                                      !- Value 266
  0,                                      !- Value 267
  0,                                      !- Value 268
  0,                                      !- Value 269
  0,                                      !- Value 270
  0,                                      !- Value 271
  0,                                      !- Value 272
  1,                                      !- Value 273
  1,                                      !- Value 274
  1,                                      !- Value 275
  1,                                      !- Value 276
  1,                                      !- Value 277
  1,                                      !- Value 278
  1,                                      !- Value 279
  1,                                      !- Value 280
  1,                                      !- Value 281
  0,                                      !- Value 282
  0,                                      !- Value 283
  0,                                      !- Value 284
  0,                                      !- Value 285
  0,                                      !- Value 286
  0,                                      !- Value 287
  0,                                      !- Value 288
  0,                                      !- Value 289
  0,                                      !- Value 290
  0,                                      !- Value 291
  0,                                      !- Value 292
  0,                                      !- Value 293
  0,                                      !- Value 294
  0,                                      !- Value 295
  0,                                      !- Value 296
  0,                                      !- Value 297
  0,                                      !- Value 298
  0,                                      !- Value 299
  0,                                      !- Value 300
  0,                                      !- Value 301
  0,                                      !- Value 302
  0,                                      !- Value 303
  0,                                      !- Value 304
  0,                                      !- Value 305
  0,                                      !- Value 306
  0,                                      !- Value 307
  0,                                      !- Value 308
  0,                                      !- Value 309
  0,                                      !- Value 310
  0,                                      !- Value 311
  0,                                      !- Value 312
  0,                                      !- Value 313
  0,                                      !- Value 314
  0,                                      !- Value 315
  0,                                      !- Value 316
  0,                                      !- Value 317
  0,                                      !- Value 318
  0,                                      !- Value 319
  0,                                      !- Value 320
  0,                                      !- Value 321
  0,                                      !- Value 322
  0,                                      !- Value 323
  0,                                      !- Value 324
  0,                                      !- Value 325
  0,                                      !- Value 326
  0,                                      !- Value 327
  0,                                      !- Value 328
  0,                                      !- Value 329
  0,                                      !- Value 330
  0,                                      !- Value 331
  0,                                      !- Value 332
  0,                                      !- Value 333
  0,                                      !- Value 334
  0,                                      !- Value 335
  0,                                      !- Value 336
  0,                                      !- Value 337
  0,                                      !- Value 338
  0,                                      !- Value 339
  0,                                      !- Value 340
  0,                                      !- Value 341
  0,                                      !- Value 342
  0,                                      !- Value 343
  0,                                      !- Value 344
  1,                                      !- Value 345
  1,                                      !- Value 346
  1,                                      !- Value 347
  1,                                      !- Value 348
  1,                                      !- Value 349
  1,                                      !- Value 350
  1,                                      !- Value 351
  1,                                      !- Value 352
  1,                                      !- Value 353
  0,                                      !- Value 354
  0,                                      !- Value 355
  0,                                      !- Value 356
  0,                                      !- Value 357
  0,                                      !- Value 358
  0,                                      !- Value 359
  0,                                      !- Value 360
  0,                                      !- Value 361
  0,                                      !- Value 362
  0,                                      !- Value 363
  0,                                      !- Value 364
  0,                                      !- Value 365
  0,                                      !- Value 366
  0,                                      !- Value 367
  0,                                      !- Value 368
  1,                                      !- Value 369
  1,                                      !- Value 370
  1,                                      !- Value 371
  1,                                      !- Value 372
  1,                                      !- Value 373
  1,                                      !- Value 374
  1,                                      !- Value 375
  1,                                      !- Value 376
  1,                                      !- Value 377